
     RDKit          3D

 38 40  0  0  0  0  0  0  0  0999 V2000
   10.1193  -17.6108   -4.0433 C   0  0  0  0  0  0  0  0  0  0  0  0
    8.8210  -17.2505   -3.3780 C   0  0  0  0  0  0  0  0  0  0  0  0
    8.0909  -16.4631   -3.9988 O   0  0  0  0  0  0  0  0  0  0  0  0
    8.4931  -17.7892   -2.1381 N   0  0  0  0  0  0  0  0  0  0  0  0
    9.3531  -18.8367   -1.4963 C   0  0  0  0  0  0  0  0  0  0  0  0
    8.2855  -19.8465   -1.0864 C   0  0  0  0  0  0  0  0  0  0  0  0
    6.9412  -19.0967   -1.1441 C   0  0  0  0  0  0  0  0  0  0  0  0
    7.4645  -17.6697   -1.1714 C   0  0  0  0  0  0  0  0  0  0  0  0
    6.4482  -16.6651   -1.2484 C   0  0  0  0  0  0  0  0  0  0  0  0
    5.9932  -16.3976   -2.4319 O   0  0  0  0  0  0  0  0  0  0  0  0
    5.8380  -15.9016   -0.2385 N   0  0  0  0  0  0  0  0  0  0  0  0
    4.4419  -15.5390   -0.2234 C   0  0  0  0  0  0  0  0  0  0  0  0
    4.0231  -15.1988    1.1963 C   0  0  0  0  0  0  0  0  0  0  0  0
    4.1844  -14.3071   -1.0400 C   0  0  0  0  0  0  0  0  0  0  0  0
    4.6336  -13.2042   -0.6369 O   0  0  0  0  0  0  0  0  0  0  0  0
    3.4599  -14.3293   -2.2412 N   0  0  0  0  0  0  0  0  0  0  0  0
    3.1116  -13.1708   -3.0358 C   0  0  0  0  0  0  0  0  0  0  0  0
    2.7313  -13.5517   -4.4351 C   0  0  0  0  0  0  0  0  0  0  0  0
    3.8376  -14.0628   -5.2389 C   0  0  0  0  0  0  0  0  0  0  0  0
    3.9540  -15.4069   -5.5041 C   0  0  0  0  0  0  0  0  0  0  0  0
    5.0109  -15.9032   -6.2738 C   0  0  0  0  0  0  0  0  0  0  0  0
    5.9445  -15.0316   -6.7704 C   0  0  0  0  0  0  0  0  0  0  0  0
    5.8570  -13.6934   -6.5253 C   0  0  0  0  0  0  0  0  0  0  0  0
    4.7922  -13.2165   -5.7531 C   0  0  0  0  0  0  0  0  0  0  0  0
    1.8851  -12.5221   -2.4390 C   0  0  0  0  0  0  0  0  0  0  0  0
    1.0327  -13.2532   -1.8749 O   0  0  0  0  0  0  0  0  0  0  0  0
    1.6746  -11.1416   -2.4972 N   0  0  0  0  0  0  0  0  0  0  0  0
    0.3450  -10.5621   -2.2981 C   0  0  0  0  0  0  0  0  0  0  0  0
    0.1009   -9.4541   -3.2727 C   0  0  0  0  0  0  0  0  0  0  0  0
   -0.1304   -9.9688   -4.6301 C   0  0  0  0  0  0  0  0  0  0  0  0
   -1.4165  -10.2273   -5.0499 C   0  0  0  0  0  0  0  0  0  0  0  0
   -1.6678  -10.7071   -6.3067 C   0  0  0  0  0  0  0  0  0  0  0  0
   -0.6071  -10.9307   -7.1552 C   0  0  0  0  0  0  0  0  0  0  0  0
    0.6916  -10.6817   -6.7645 C   0  0  0  0  0  0  0  0  0  0  0  0
    0.9381  -10.1991   -5.4991 C   0  0  0  0  0  0  0  0  0  0  0  0
    0.1587  -10.2040   -0.8937 C   0  0  0  0  0  0  0  0  0  0  0  0
   -1.0007   -9.8033   -0.5268 O   0  0  0  0  0  0  0  0  0  0  0  0
    1.1568  -10.2569    0.1198 N   0  0  0  0  0  0  0  0  0  0  0  0
  1  2  1  0
  2  3  2  0
  2  4  1  0
  4  5  1  0
  5  6  1  0
  6  7  1  0
  7  8  1  0
  8  9  1  0
  9 10  2  0
  9 11  1  0
 11 12  1  0
 12 13  1  0
 12 14  1  0
 14 15  2  0
 14 16  1  0
 16 17  1  0
 17 18  1  0
 18 19  1  0
 19 20  2  0
 20 21  1  0
 21 22  2  0
 22 23  1  0
 23 24  2  0
 17 25  1  0
 25 26  2  0
 25 27  1  0
 27 28  1  0
 28 29  1  0
 29 30  1  0
 30 31  2  0
 31 32  1  0
 32 33  2  0
 33 34  1  0
 34 35  2  0
 28 36  1  0
 36 37  2  0
 36 38  1  0
  8  4  1  0
 24 19  1  0
 35 30  1  0
M  END
$$$$
