
     RDKit          3D

 38 40  0  0  0  0  0  0  0  0999 V2000
    8.2392  -19.2939   -1.0201 C   0  0  0  0  0  0  0  0  0  0  0  0
    8.8145  -19.3210    0.3677 C   0  0  0  0  0  0  0  0  0  0  0  0
    9.7967  -20.0595    0.5360 O   0  0  0  0  0  0  0  0  0  0  0  0
    8.2503  -18.5488    1.3780 N   0  0  0  0  0  0  0  0  0  0  0  0
    8.8328  -18.5350    2.7597 C   0  0  0  0  0  0  0  0  0  0  0  0
    7.5656  -18.7273    3.5872 C   0  0  0  0  0  0  0  0  0  0  0  0
    6.3874  -18.4049    2.6487 C   0  0  0  0  0  0  0  0  0  0  0  0
    7.1478  -17.6765    1.5522 C   0  0  0  0  0  0  0  0  0  0  0  0
    6.3365  -17.2330    0.4599 C   0  0  0  0  0  0  0  0  0  0  0  0
    5.7412  -18.1573   -0.2261 O   0  0  0  0  0  0  0  0  0  0  0  0
    6.0615  -15.9367   -0.0082 N   0  0  0  0  0  0  0  0  0  0  0  0
    4.7718  -15.4999   -0.4843 C   0  0  0  0  0  0  0  0  0  0  0  0
    3.8130  -15.3828    0.6878 C   0  0  0  0  0  0  0  0  0  0  0  0
    4.8461  -14.1335   -1.0994 C   0  0  0  0  0  0  0  0  0  0  0  0
    4.8312  -13.1257   -0.3479 O   0  0  0  0  0  0  0  0  0  0  0  0
    4.9319  -13.9272   -2.4845 N   0  0  0  0  0  0  0  0  0  0  0  0
    4.9633  -12.6390   -3.1434 C   0  0  0  0  0  0  0  0  0  0  0  0
    5.0302  -12.7799   -4.6346 C   0  0  0  0  0  0  0  0  0  0  0  0
    4.8161  -11.5341   -5.3646 C   0  0  0  0  0  0  0  0  0  0  0  0
    4.9402  -11.4888   -6.7333 C   0  0  0  0  0  0  0  0  0  0  0  0
    4.7359  -10.2989   -7.4390 C   0  0  0  0  0  0  0  0  0  0  0  0
    4.4064   -9.1605   -6.7509 C   0  0  0  0  0  0  0  0  0  0  0  0
    4.2759   -9.1726   -5.3939 C   0  0  0  0  0  0  0  0  0  0  0  0
    4.4843  -10.3729   -4.7061 C   0  0  0  0  0  0  0  0  0  0  0  0
    3.6697  -11.9140   -2.8570 C   0  0  0  0  0  0  0  0  0  0  0  0
    3.6352  -10.6661   -3.0018 O   0  0  0  0  0  0  0  0  0  0  0  0
    2.5194  -12.5885   -2.4383 N   0  0  0  0  0  0  0  0  0  0  0  0
    1.3486  -11.8653   -1.9386 C   0  0  0  0  0  0  0  0  0  0  0  0
    0.7891  -12.5403   -0.7268 C   0  0  0  0  0  0  0  0  0  0  0  0
    1.5885  -12.2492    0.4721 C   0  0  0  0  0  0  0  0  0  0  0  0
    2.6621  -13.0530    0.7858 C   0  0  0  0  0  0  0  0  0  0  0  0
    3.4274  -12.8109    1.8941 C   0  0  0  0  0  0  0  0  0  0  0  0
    3.1070  -11.7421    2.7004 C   0  0  0  0  0  0  0  0  0  0  0  0
    2.0386  -10.9192    2.4131 C   0  0  0  0  0  0  0  0  0  0  0  0
    1.2725  -11.1677    1.2969 C   0  0  0  0  0  0  0  0  0  0  0  0
    0.3932  -11.6469   -3.0226 C   0  0  0  0  0  0  0  0  0  0  0  0
    0.1855  -12.6098   -3.8405 O   0  0  0  0  0  0  0  0  0  0  0  0
   -0.3377  -10.4489   -3.2611 N   0  0  0  0  0  0  0  0  0  0  0  0
  1  2  1  0
  2  3  2  0
  2  4  1  0
  4  5  1  0
  5  6  1  0
  6  7  1  0
  7  8  1  0
  8  9  1  0
  9 10  2  0
  9 11  1  0
 11 12  1  0
 12 13  1  0
 12 14  1  0
 14 15  2  0
 14 16  1  0
 16 17  1  0
 17 18  1  0
 18 19  1  0
 19 20  2  0
 20 21  1  0
 21 22  2  0
 22 23  1  0
 23 24  2  0
 17 25  1  0
 25 26  2  0
 25 27  1  0
 27 28  1  0
 28 29  1  0
 29 30  1  0
 30 31  2  0
 31 32  1  0
 32 33  2  0
 33 34  1  0
 34 35  2  0
 28 36  1  0
 36 37  2  0
 36 38  1  0
  8  4  1  0
 24 19  1  0
 35 30  1  0
M  END
$$$$
