
     RDKit          3D

 38 40  0  0  0  0  0  0  0  0999 V2000
   10.4206  -16.4026    0.0641 C   0  0  0  0  0  0  0  0  0  0  0  0
   10.3758  -16.2866    1.5615 C   0  0  0  0  0  0  0  0  0  0  0  0
   11.4723  -16.1922    2.1336 O   0  0  0  0  0  0  0  0  0  0  0  0
    9.1563  -16.2888    2.2308 N   0  0  0  0  0  0  0  0  0  0  0  0
    9.0720  -15.9484    3.6888 C   0  0  0  0  0  0  0  0  0  0  0  0
    8.1947  -17.0950    4.1819 C   0  0  0  0  0  0  0  0  0  0  0  0
    7.5361  -17.7009    2.9282 C   0  0  0  0  0  0  0  0  0  0  0  0
    7.7960  -16.5667    1.9500 C   0  0  0  0  0  0  0  0  0  0  0  0
    7.3166  -16.8047    0.6227 C   0  0  0  0  0  0  0  0  0  0  0  0
    7.9692  -17.6798   -0.0756 O   0  0  0  0  0  0  0  0  0  0  0  0
    6.2311  -16.2446   -0.0723 N   0  0  0  0  0  0  0  0  0  0  0  0
    5.5862  -16.8597   -1.2065 C   0  0  0  0  0  0  0  0  0  0  0  0
    4.9153  -18.1501   -0.7685 C   0  0  0  0  0  0  0  0  0  0  0  0
    4.4953  -15.9898   -1.7579 C   0  0  0  0  0  0  0  0  0  0  0  0
    3.5941  -16.5146   -2.4601 O   0  0  0  0  0  0  0  0  0  0  0  0
    4.4343  -14.6077   -1.5246 N   0  0  0  0  0  0  0  0  0  0  0  0
    3.2940  -13.8935   -0.9915 C   0  0  0  0  0  0  0  0  0  0  0  0
    3.6773  -13.0211    0.1660 C   0  0  0  0  0  0  0  0  0  0  0  0
    2.5552  -12.3276    0.7914 C   0  0  0  0  0  0  0  0  0  0  0  0
    2.3182  -10.9974    0.5366 C   0  0  0  0  0  0  0  0  0  0  0  0
    1.2448  -10.3272    1.1319 C   0  0  0  0  0  0  0  0  0  0  0  0
    0.4172  -11.0115    1.9831 C   0  0  0  0  0  0  0  0  0  0  0  0
    0.6255  -12.3308    2.2562 C   0  0  0  0  0  0  0  0  0  0  0  0
    1.7047  -12.9836    1.6507 C   0  0  0  0  0  0  0  0  0  0  0  0
    2.7655  -12.9583   -2.0533 C   0  0  0  0  0  0  0  0  0  0  0  0
    1.8527  -12.1519   -1.7437 O   0  0  0  0  0  0  0  0  0  0  0  0
    3.2605  -12.9661   -3.3604 N   0  0  0  0  0  0  0  0  0  0  0  0
    2.7155  -12.0786   -4.3893 C   0  0  0  0  0  0  0  0  0  0  0  0
    1.3257  -12.4898   -4.7587 C   0  0  0  0  0  0  0  0  0  0  0  0
    0.4733  -12.6433   -3.5709 C   0  0  0  0  0  0  0  0  0  0  0  0
    0.3495  -11.5981   -2.6825 C   0  0  0  0  0  0  0  0  0  0  0  0
   -0.4353  -11.7069   -1.5667 C   0  0  0  0  0  0  0  0  0  0  0  0
   -1.1068  -12.8873   -1.3410 C   0  0  0  0  0  0  0  0  0  0  0  0
   -1.0033  -13.9515   -2.2117 C   0  0  0  0  0  0  0  0  0  0  0  0
   -0.2123  -13.8361   -3.3323 C   0  0  0  0  0  0  0  0  0  0  0  0
    3.6491  -11.9752   -5.5087 C   0  0  0  0  0  0  0  0  0  0  0  0
    4.2234  -13.0468   -5.9102 O   0  0  0  0  0  0  0  0  0  0  0  0
    3.9876  -10.7804   -6.2045 N   0  0  0  0  0  0  0  0  0  0  0  0
  1  2  1  0
  2  3  2  0
  2  4  1  0
  4  5  1  0
  5  6  1  0
  6  7  1  0
  7  8  1  0
  8  9  1  0
  9 10  2  0
  9 11  1  0
 11 12  1  0
 12 13  1  0
 12 14  1  0
 14 15  2  0
 14 16  1  0
 16 17  1  0
 17 18  1  0
 18 19  1  0
 19 20  2  0
 20 21  1  0
 21 22  2  0
 22 23  1  0
 23 24  2  0
 17 25  1  0
 25 26  2  0
 25 27  1  0
 27 28  1  0
 28 29  1  0
 29 30  1  0
 30 31  2  0
 31 32  1  0
 32 33  2  0
 33 34  1  0
 34 35  2  0
 28 36  1  0
 36 37  2  0
 36 38  1  0
  8  4  1  0
 24 19  1  0
 35 30  1  0
M  END
$$$$
