
     RDKit          3D

 38 40  0  0  0  0  0  0  0  0999 V2000
    3.5114  -20.3123   -5.0300 C   0  0  0  0  0  0  0  0  0  0  0  0
    4.2821  -19.0261   -4.9336 C   0  0  0  0  0  0  0  0  0  0  0  0
    5.3090  -19.0570   -4.2386 O   0  0  0  0  0  0  0  0  0  0  0  0
    3.8376  -17.8884   -5.5994 N   0  0  0  0  0  0  0  0  0  0  0  0
    2.9182  -17.9908   -6.7797 C   0  0  0  0  0  0  0  0  0  0  0  0
    3.6244  -17.0515   -7.7525 C   0  0  0  0  0  0  0  0  0  0  0  0
    4.5947  -16.2069   -6.9052 C   0  0  0  0  0  0  0  0  0  0  0  0
    4.0133  -16.4846   -5.5283 C   0  0  0  0  0  0  0  0  0  0  0  0
    4.7079  -15.8490   -4.4504 C   0  0  0  0  0  0  0  0  0  0  0  0
    4.6285  -16.4290   -3.2943 O   0  0  0  0  0  0  0  0  0  0  0  0
    5.4850  -14.6783   -4.4267 N   0  0  0  0  0  0  0  0  0  0  0  0
    4.9727  -13.3675   -4.1101 C   0  0  0  0  0  0  0  0  0  0  0  0
    3.8646  -13.0085   -5.0849 C   0  0  0  0  0  0  0  0  0  0  0  0
    4.3527  -13.3341   -2.7443 C   0  0  0  0  0  0  0  0  0  0  0  0
    3.7772  -12.2836   -2.3623 O   0  0  0  0  0  0  0  0  0  0  0  0
    4.3860  -14.4288   -1.8676 N   0  0  0  0  0  0  0  0  0  0  0  0
    3.8444  -14.4493   -0.5256 C   0  0  0  0  0  0  0  0  0  0  0  0
    4.7342  -13.7295    0.4430 C   0  0  0  0  0  0  0  0  0  0  0  0
    5.9921  -14.4146    0.7244 C   0  0  0  0  0  0  0  0  0  0  0  0
    6.3102  -15.5928    0.0911 C   0  0  0  0  0  0  0  0  0  0  0  0
    7.5138  -16.2540    0.3555 C   0  0  0  0  0  0  0  0  0  0  0  0
    8.3886  -15.7151    1.2623 C   0  0  0  0  0  0  0  0  0  0  0  0
    8.1024  -14.5484    1.9069 C   0  0  0  0  0  0  0  0  0  0  0  0
    6.8933  -13.9021    1.6285 C   0  0  0  0  0  0  0  0  0  0  0  0
    2.5349  -13.6969   -0.5175 C   0  0  0  0  0  0  0  0  0  0  0  0
    1.5304  -14.2330   -1.0495 O   0  0  0  0  0  0  0  0  0  0  0  0
    2.4115  -12.4306    0.0611 N   0  0  0  0  0  0  0  0  0  0  0  0
    1.1264  -11.7303    0.1007 C   0  0  0  0  0  0  0  0  0  0  0  0
    1.2074  -10.4364   -0.6453 C   0  0  0  0  0  0  0  0  0  0  0  0
    1.2721  -10.6527   -2.0979 C   0  0  0  0  0  0  0  0  0  0  0  0
    2.2776  -10.0608   -2.8299 C   0  0  0  0  0  0  0  0  0  0  0  0
    2.3675  -10.2407   -4.1835 C   0  0  0  0  0  0  0  0  0  0  0  0
    1.4298  -11.0295   -4.8111 C   0  0  0  0  0  0  0  0  0  0  0  0
    0.4116  -11.6355   -4.1061 C   0  0  0  0  0  0  0  0  0  0  0  0
    0.3263  -11.4508   -2.7447 C   0  0  0  0  0  0  0  0  0  0  0  0
    0.6563  -11.6217    1.4800 C   0  0  0  0  0  0  0  0  0  0  0  0
   -0.4570  -11.0245    1.6877 O   0  0  0  0  0  0  0  0  0  0  0  0
    1.3275  -12.1216    2.6315 N   0  0  0  0  0  0  0  0  0  0  0  0
  1  2  1  0
  2  3  2  0
  2  4  1  0
  4  5  1  0
  5  6  1  0
  6  7  1  0
  7  8  1  0
  8  9  1  0
  9 10  2  0
  9 11  1  0
 11 12  1  0
 12 13  1  0
 12 14  1  0
 14 15  2  0
 14 16  1  0
 16 17  1  0
 17 18  1  0
 18 19  1  0
 19 20  2  0
 20 21  1  0
 21 22  2  0
 22 23  1  0
 23 24  2  0
 17 25  1  0
 25 26  2  0
 25 27  1  0
 27 28  1  0
 28 29  1  0
 29 30  1  0
 30 31  2  0
 31 32  1  0
 32 33  2  0
 33 34  1  0
 34 35  2  0
 28 36  1  0
 36 37  2  0
 36 38  1  0
  8  4  1  0
 24 19  1  0
 35 30  1  0
M  END
$$$$
