
     RDKit          3D

 38 40  0  0  0  0  0  0  0  0999 V2000
    5.9534  -17.3993   -0.4979 C   0  0  0  0  0  0  0  0  0  0  0  0
    5.8237  -16.0649   -1.1763 C   0  0  0  0  0  0  0  0  0  0  0  0
    4.6960  -15.7802   -1.6074 O   0  0  0  0  0  0  0  0  0  0  0  0
    6.9270  -15.2260   -1.2946 N   0  0  0  0  0  0  0  0  0  0  0  0
    8.3155  -15.7310   -1.0378 C   0  0  0  0  0  0  0  0  0  0  0  0
    8.8410  -14.6225   -0.1309 C   0  0  0  0  0  0  0  0  0  0  0  0
    7.8833  -13.4297   -0.3124 C   0  0  0  0  0  0  0  0  0  0  0  0
    7.1962  -13.8682   -1.5956 C   0  0  0  0  0  0  0  0  0  0  0  0
    6.1873  -12.9692   -2.0668 C   0  0  0  0  0  0  0  0  0  0  0  0
    5.0930  -12.9195   -1.3744 O   0  0  0  0  0  0  0  0  0  0  0  0
    6.1771  -12.1050   -3.1750 N   0  0  0  0  0  0  0  0  0  0  0  0
    5.0996  -11.1996   -3.4912 C   0  0  0  0  0  0  0  0  0  0  0  0
    5.1346  -10.8698   -4.9735 C   0  0  0  0  0  0  0  0  0  0  0  0
    3.7608  -11.8267   -3.2359 C   0  0  0  0  0  0  0  0  0  0  0  0
    3.3858  -12.7799   -3.9648 O   0  0  0  0  0  0  0  0  0  0  0  0
    2.9019  -11.3952   -2.2139 N   0  0  0  0  0  0  0  0  0  0  0  0
    1.4834  -11.1456   -2.3558 C   0  0  0  0  0  0  0  0  0  0  0  0
    0.9644  -10.2575   -1.2650 C   0  0  0  0  0  0  0  0  0  0  0  0
    1.3477  -10.6741    0.0806 C   0  0  0  0  0  0  0  0  0  0  0  0
    0.8145  -11.8084    0.6460 C   0  0  0  0  0  0  0  0  0  0  0  0
    1.1777  -12.2136    1.9342 C   0  0  0  0  0  0  0  0  0  0  0  0
    2.0809  -11.4645    2.6420 C   0  0  0  0  0  0  0  0  0  0  0  0
    2.6275  -10.3348    2.1095 C   0  0  0  0  0  0  0  0  0  0  0  0
    2.2514   -9.9462    0.8192 C   0  0  0  0  0  0  0  0  0  0  0  0
    1.2478  -10.3939   -3.6444 C   0  0  0  0  0  0  0  0  0  0  0  0
    1.7191   -9.2345   -3.7588 O   0  0  0  0  0  0  0  0  0  0  0  0
    0.5253  -10.9489   -4.7044 N   0  0  0  0  0  0  0  0  0  0  0  0
   -0.8815  -11.3261   -4.5558 C   0  0  0  0  0  0  0  0  0  0  0  0
   -1.2535  -12.3786   -5.5512 C   0  0  0  0  0  0  0  0  0  0  0  0
   -0.8275  -13.7147   -5.1105 C   0  0  0  0  0  0  0  0  0  0  0  0
    0.3805  -14.2194   -5.5383 C   0  0  0  0  0  0  0  0  0  0  0  0
    0.8078  -15.4594   -5.1476 C   0  0  0  0  0  0  0  0  0  0  0  0
    0.0060  -16.2041   -4.3123 C   0  0  0  0  0  0  0  0  0  0  0  0
   -1.2084  -15.7266   -3.8669 C   0  0  0  0  0  0  0  0  0  0  0  0
   -1.6329  -14.4786   -4.2633 C   0  0  0  0  0  0  0  0  0  0  0  0
   -1.7253  -10.1331   -4.5711 C   0  0  0  0  0  0  0  0  0  0  0  0
   -2.9628  -10.2714   -4.2731 O   0  0  0  0  0  0  0  0  0  0  0  0
   -1.2981   -8.8136   -4.8917 N   0  0  0  0  0  0  0  0  0  0  0  0
  1  2  1  0
  2  3  2  0
  2  4  1  0
  4  5  1  0
  5  6  1  0
  6  7  1  0
  7  8  1  0
  8  9  1  0
  9 10  2  0
  9 11  1  0
 11 12  1  0
 12 13  1  0
 12 14  1  0
 14 15  2  0
 14 16  1  0
 16 17  1  0
 17 18  1  0
 18 19  1  0
 19 20  2  0
 20 21  1  0
 21 22  2  0
 22 23  1  0
 23 24  2  0
 17 25  1  0
 25 26  2  0
 25 27  1  0
 27 28  1  0
 28 29  1  0
 29 30  1  0
 30 31  2  0
 31 32  1  0
 32 33  2  0
 33 34  1  0
 34 35  2  0
 28 36  1  0
 36 37  2  0
 36 38  1  0
  8  4  1  0
 24 19  1  0
 35 30  1  0
M  END
$$$$
